LAMMPS (2 Aug 2023)
# LAMMPSロゴのシミュレーション

units		lj  # LJ単位系.
atom_style	atomic  # 粒子.
dimension	2   # 次元.

lattice		sq2 0.5 origin 0.25 0.25 0.0  # 粒子の初期配置.
Lattice spacing in x,y,z = 2 2 2
region		box block 0 31 0 7 -0.5 0.5 # 系の領域設定.
create_box	2 box    # 系の生成.
Created orthogonal box = (0 0 -1) to (62 14 1)
create_atoms	1 box   # 粒子の生成.
Created 434 atoms

# LAMMPSロゴの各文字に対応する領域を定義
# 各領域は文字を形成する原子のサブセットを定義
region	        L1 block 2 3 1 6 -0.5 0.5
region	        L2 block 2 5 1 2 -0.5 0.5
region		L union 2 L1 L2

# 文字領域内の原子はタイプ2
set		region L type 2
Setting atom values ...
  14 settings made for type

# A, M(1M, 2M), P, Sの文字に対応する類似の領域が定義されている

region	        A1 block 6 7 1 6 -0.5 0.5
region	        A2 block 8 9 1 6 -0.5 0.5
region	        A3 block 6 9 3 4 -0.5 0.5
region	        A4 block 6 9 5 6 -0.5 0.5
region		A union 4 A1 A2 A3 A4

region	        1M1 block 10 11 1 6 -0.5 0.5
region	        1M2 block 14 15 1 6 -0.5 0.5
region	        1M3 block 10 15 5 6 -0.5 0.5
region	        1M4 block 12 13 3 6 -0.5 0.5
region		1M union 4 1M1 1M2 1M3 1M4

region	        2M1 block 16 17 1 6 -0.5 0.5
region	        2M2 block 20 21 1 6 -0.5 0.5
region	        2M3 block 16 21 5 6 -0.5 0.5
region	        2M4 block 18 19 3 6 -0.5 0.5
region		2M union 4 2M1 2M2 2M3 2M4

region	        P1 block 22 23 1 6 -0.5 0.5
region	        P2 block 24 25 3 6 -0.5 0.5
region	        P3 block 22 25 3 4 -0.5 0.5
region	        P4 block 22 25 5 6 -0.5 0.5
region		P union 4 P1 P2 P3 P4

region	        S1 block 26 29 5 6 -0.5 0.5
region	        S2 block 26 27 3 6 -0.5 0.5
region	        S3 block 26 29 3 4 -0.5 0.5
region	        S4 block 28 29 1 4 -0.5 0.5
region	        S5 block 26 29 1 2 -0.5 0.5
region		S union 5 S1 S2 S3 S4 S5

region          LAMMPS union 6 L A 1M 2M P S
set		region LAMMPS type 2
Setting atom values ...
  140 settings made for type

mass		* 1.0 # 粒子の設定.

# 粒子-粒子間相互作用ポテンシャル
pair_style	lj/cut 2.5
pair_coeff	* * 1.0 1.0 2.5

timestep        0.005 # MDシミュレーションのtimestep.

# 高速化コマンド. neighbor list に入れる距離指定.
neighbor	0.3 bin
neigh_modify	delay 0 every 1 check yes

velocity	all create 2.0 87287 loop geom # 全原子の速度を初期化.

thermo		100 # 熱力学情報の出力頻度を設定.
dump		1 all atom 20 output.lammpstrj # 20タイムステップごとに原子位置をoutput.lammpstrjというファイルにダンプ

# 100ステップのシミュレーションを積分せずに実行して"一時停止"させる
run		100
Generated 0 of 1 mixed pair_coeff terms from geometric mixing rule
Step          Temp          E_pair         E_mol          TotEng         Press
0   2             -0.99804688     0              0.99734483    -0.30894477
Loop time of 0.00116394 on 4 procs for 100 steps with 434 atoms

fix		1 all nve # 原子1についてNVEアンサンブルでシミュレーション.
fix		2 all enforce2d # 原子2のz次元の速度と力をゼロ.
run		1000 # 実行
Generated 0 of 1 mixed pair_coeff terms from geometric mixing rule
Step          Temp          E_pair         E_mol          TotEng         Press
100   2             -0.99804688     0              0.99734483    -0.30894477
Averages over the last 6 of 11 rows, steps 600 to 1100:
Temp E_pair E_mol TotEng Press
2.0719 -1.07901 0 0.988118 1.9982
Loop time of 0.0266311 on 4 procs for 1000 steps with 434 atoms

# 設定を解除してシミュレーションを実行, 可視化を一時停止する.
unfix		1
unfix		2
run		200 # 実行
Generated 0 of 1 mixed pair_coeff terms from geometric mixing rule
Step          Temp          E_pair         E_mol          TotEng         Press
1100   2.1121628     -1.1187755      0              0.9885206      1.8173042
Loop time of 0.00243504 on 4 procs for 200 steps with 434 atoms

# 原子の速度を反転させ, シミュレーションを継続する.
variable        vxflip atom -vx
variable        vyflip atom -vy
velocity	all set v_vxflip v_vyflip NULL

fix		1 all nve # 原子1についてNVEアンサンブルでシミュレーション.
fix		2 all enforce2d # 原子2のz次元の速度と力をゼロ.
run		1000 # 実行
Generated 0 of 1 mixed pair_coeff terms from geometric mixing rule
Step          Temp          E_pair         E_mol          TotEng         Press
1300   2.1121628     -1.1187755      0              0.9885206      1.8173042
Averages over the last 6 of 11 rows, steps 1800 to 2300:
Temp E_pair E_mol TotEng Press
2.05053 -1.05582 0 0.989988 1.58311
Loop time of 0.0224883 on 4 procs for 1000 steps with 434 atoms

# 再び設定を解除してシミュレーションを実行, 可視化を一時停止する.
unfix		1
unfix		2
run		100 # 実行
Generated 0 of 1 mixed pair_coeff terms from geometric mixing rule
Step          Temp          E_pair         E_mol          TotEng         Press
2300   2             -0.99804688     0              0.99734483    -0.30894477
Loop time of 0.00131614 on 4 procs for 100 steps with 434 atoms
