実験日時: 2024-02-22T15:14:04.942
LAMMPS (2 Aug 2023)
# 3d Lennard-Jones melt

units		lj # LJ単位系.
atom_style	atomic # 粒子.

lattice		fcc 0.00442 # 粒子の初期配置.  ココ
Lattice spacing in x,y,z = 9.6726597 9.6726597 9.6726597
region		box block 0 10 0 10 0 10 # 系の領域設定. ココ
create_box	1 box # 系の生成.
Created orthogonal box = (0 0 0) to (96.726597 96.726597 96.726597)
create_atoms	1 box # 粒子の生成.
Created 4000 atoms
mass		1 1.0 # 粒子の設定.

velocity	all create 3.0 87287 loop geom # 全原子の速度を初期化.

# 粒子-粒子間相互作用ポテンシャル
pair_style	lj/cut 2.5
pair_coeff	1 1 1.0 1.0 2.5

# 高速化コマンド. neighbor list に入れる距離指定.
neighbor	0.3 bin
neigh_modify	every 20 delay 0 check no

fix		1 all nve # NVEアンサンブルでシミュレーション.

# 出力コマンド
# lammpstrj
# dump		id all atom 50 melt.dump
dump		id all atom 50 output.lammpstrj # VMDでは拡張子「.lammpstrj」を認識する.

# image
# dump		2 all image 25 image.*.jpg type type # 		axes yes 0.8 0.02 view 60 -30
# dump_modify	2 pad 3

# movie > うまくいったことがない.
# dump		3 all movie 25 movie.mpg type type # 		axes yes 0.8 0.02 view 60 -30
# dump_modify	3 pad 3

thermo		50 # 熱力学情報の出力頻度を設定.
# run		250 # 実行
run		2500 # 実行. 10倍にした.
Generated 0 of 0 mixed pair_coeff terms from geometric mixing rule
Step          Temp          E_pair         E_mol          TotEng         Press
0   3              0              0              4.498875       0.013256685
Averages over the last 26 of 51 rows, steps 1250 to 2500:
Temp E_pair E_mol TotEng Press
3.01282 -0.022294 0 4.4958 0.013323
Loop time of 0.21841 on 4 procs for 2500 steps with 4000 atoms
